Version 4
SHEET 1 880 680
WIRE -96 160 -176 160
WIRE 16 160 -16 160
WIRE 48 160 16 160
WIRE 176 160 128 160
WIRE -176 176 -176 160
WIRE -176 256 -176 240
WIRE 64 288 64 272
WIRE 16 304 16 160
WIRE 32 304 16 304
WIRE 176 320 176 160
WIRE 176 320 96 320
WIRE 224 320 176 320
WIRE 32 336 -64 336
WIRE -64 352 -64 336
WIRE 64 368 64 352
WIRE -544 432 -544 384
WIRE -432 432 -432 384
WIRE -64 448 -64 432
WIRE -544 544 -544 512
WIRE -432 544 -432 512
FLAG -176 256 0
FLAG 64 272 Vcc
FLAG 64 368 -Vcc
FLAG -432 384 Vcc
FLAG -432 544 0
FLAG -544 384 -Vcc
FLAG -544 544 0
FLAG -64 448 0
SYMBOL res 0 144 R90
WINDOW 0 0 56 VBottom 2
WINDOW 3 32 56 VTop 2
SYMATTR InstName R1
SYMATTR Value 1k
SYMBOL res 144 144 R90
WINDOW 0 0 56 VBottom 2
WINDOW 3 32 56 VTop 2
SYMATTR InstName R2
SYMATTR Value 10k
SYMBOL cap -192 176 R0
SYMATTR InstName C1
SYMATTR Value 1µF
SYMBOL Opamps\\LT1677 64 256 R0
SYMATTR InstName U1
SYMBOL voltage -432 416 R0
WINDOW 123 0 0 Left 2
WINDOW 39 0 0 Left 2
SYMATTR InstName V1
SYMATTR Value 9v
SYMBOL voltage -544 416 R0
WINDOW 123 0 0 Left 2
WINDOW 39 0 0 Left 2
SYMATTR InstName V2
SYMATTR Value -9V
SYMBOL voltage -64 336 R0
WINDOW 123 24 124 Left 2
WINDOW 39 0 0 Left 2
SYMATTR InstName V3
SYMATTR Value ""
SYMATTR Value2 AC 0.1 0
TEXT -144 8 Left 2 !.ac dec 10m 1 100k
